[Format]      =  1
[Precision]   =  1e-008
[MinAngle]    =  30
[DoSmartMesh] =  1
[Depth]       =  10
[LengthUnits] =  meters
[ProblemType] =  planar
[Coordinates] =  cartesian
[PrevSoln] = ""
[dT] = 0
[Comment]     =  "Add comments here."
[PointProps]   = 0
[BdryProps]   = 0
[BlockProps]  = 5
  <BeginBlock>
    <BlockName> = "Brique"
    <Kx> = 0.40000000000000002
    <Ky> = 0.40000000000000002
    <Kt> = 0
    <qv> = 0
  <EndBlock>
  <BeginBlock>
    <BlockName> = "Air libre"
    <Kx> = 1000000
    <Ky> = 1000000
    <Kt> = 0
    <qv> = 0
  <EndBlock>
  <BeginBlock>
    <BlockName> = "Fibre"
    <Kx> = 0.040000000000000001
    <Ky> = 0.040000000000000001
    <Kt> = 0
    <qv> = 0
  <EndBlock>
  <BeginBlock>
    <BlockName> = "Béton"
    <Kx> = 1
    <Ky> = 1
    <Kt> = 1.5109999999999999
    <qv> = 0
  <EndBlock>
  <BeginBlock>
    <BlockName> = "Lame d'air"
    <Kx> = 2
    <Ky> = 2
    <Kt> = 0
    <qv> = 0
  <EndBlock>
[ConductorProps]  = 2
  <BeginConductor>
    <ConductorName> = "Dehors"
    <Tc> = -5
    <qc> = 0
    <ConductorType> = 1
  <EndConductor>
  <BeginConductor>
    <ConductorName> = "Dedans"
    <Tc> = 19
    <qc> = 2000
    <ConductorType> = 1
  <EndConductor>
[NumPoints] = 82
1	1	0	0	0
1	3.5	0	0	0
0.80000000000000004	3.5	0	0	0
0.80000000000000004	1	0	0	0
0.80000000000000004	1.1000000000000001	0	0	0
1	1.1000000000000001	0	0	0
0.80000000000000004	0.80000000000000004	0	0	0
1	0.80000000000000004	0	0	0
1	0.40000000000000002	0	0	0
1.3	1	0	0	0
1.3	0.80000000000000004	0	0	0
1.3	0.40000000000000002	0	0	0
0	1	0	0	0
0	0.80000000000000004	0	0	0
-1	0.40000000000000002	0	0	0
1.3	3.7000000000000002	0	0	0
1.3	3.5	0	0	0
1.3	6.2000000000000002	0	0	0
1.3	6.4000000000000004	0	0	0
1	6.4000000000000004	0	0	0
1	7	0	0	0
1.3	7	0	0	0
0.80000000000000004	6.4000000000000004	0	0	0
0.80000000000000004	7	0	0	0
-1	8	0	0	0
1.3	6.7000000000000002	0	0	0
10.5	1	0	0	0
12	0.40000000000000002	0	0	0
12	8	0	0	0
10.5	3.5	0	0	0
10.5	3.7000000000000002	0	0	0
10.5	6.2000000000000002	0	0	0
10.5	6.4000000000000004	0	0	0
10.200000000000001	6.7000000000000002	0	0	0
10.200000000000001	6.4000000000000004	0	0	0
10.5	7	0	0	0
10.200000000000001	7	0	0	0
10.700000000000001	7	0	0	0
10.700000000000001	0.80000000000000004	0	0	0
9.4000000000000004	0.80000000000000004	0	0	0
9.4000000000000004	0.40000000000000002	0	0	0
9.0999999999999996	0.40000000000000002	0	0	0
9.0999999999999996	0.80000000000000004	0	0	0
4.5	4.6000000000000005	0	0	0
4.5	2.2000000000000002	0	0	0
9.0999999999999996	1	0	0	0
9.4000000000000004	1	0	0	0
9.4000000000000004	6.2000000000000002	0	0	0
9.0999999999999996	6.2000000000000002	0	0	0
9.0999999999999996	3.7000000000000002	0	0	0
9.4000000000000004	3.7000000000000002	0	0	0
9.0999999999999996	3.5	0	0	0
9.4000000000000004	3.5	0	0	0
1	3.7000000000000002	0	0	0
1	6.2000000000000002	0	0	0
5.4000000000000004	6.4000000000000004	0	0	0
6.1000000000000005	6.4000000000000004	0	0	0
6.1000000000000005	6.7000000000000002	0	0	0
5.4000000000000004	6.7000000000000002	0	0	0
5.5	6.7000000000000002	0	0	0
5.5	6.5	0	0	0
6	6.5	0	0	0
6	6.7000000000000002	0	0	0
10.600000000000001	0.80000000000000004	0	0	0
10.600000000000001	0.40000000000000002	0	0	0
10.4	0.40000000000000002	0	0	0
10.4	0.80000000000000004	0	0	0
10.5	0.80000000000000004	0	0	0
10.600000000000001	0.70000000000000007	0	0	0
12	0.70000000000000007	0	0	0
7.8000000000000007	4.6000000000000005	0	0	0
7.8000000000000007	2.2000000000000002	0	0	0
4.7000000000000002	3.7000000000000002	0	0	0
4.9000000000000004	3.7000000000000002	0	0	0
4.7000000000000002	3.5	0	0	0
4.9000000000000004	3.5	0	0	0
4.9000000000000004	1	0	0	0
4.7000000000000002	1	0	0	0
4.7000000000000002	0.80000000000000004	0	0	0
4.9000000000000004	0.80000000000000004	0	0	0
4.9000000000000004	0.40000000000000002	0	0	0
4.7000000000000002	0.40000000000000002	0	0	0
[NumSegments] = 95
1	5	-1	0	0	0	0
2	4	-1	0	0	0	0
5	0	-1	0	0	0	0
7	8	-1	0	0	0	0
11	10	-1	0	0	0	0
11	8	-1	0	0	0	0
14	8	-1	0	0	0	0
9	16	-1	0	0	0	0
15	17	-1	0	0	0	0
19	54	-1	0	0	0	0
20	19	-1	0	0	0	0
20	21	-1	0	0	0	0
21	25	-1	0	0	0	0
2	22	-1	0	0	0	0
23	22	-1	0	0	0	0
23	20	-1	0	0	0	0
25	18	-1	0	0	0	0
28	69	-1	0	0	0	1
24	28	-1	0	0	0	1
24	14	-1	0	0	0	1
17	48	-1	0	0	0	0
32	31	-1	0	0	0	0
15	72	-1	0	0	0	0
30	29	-1	0	0	0	0
25	58	-1	0	0	0	0
34	56	-1	0	0	0	0
34	33	-1	0	0	0	0
33	36	-1	0	0	0	0
32	35	-1	0	0	0	0
35	36	-1	0	0	0	0
35	37	-1	0	0	0	0
37	38	-1	0	0	0	0
26	29	-1	0	0	0	0
30	31	-1	0	0	0	0
11	81	-1	0	0	0	0
41	40	-1	0	0	0	0
41	42	-1	0	0	0	0
39	40	-1	0	0	0	0
10	78	-1	0	0	0	0
9	77	-1	0	0	0	0
46	26	-1	0	0	0	0
16	74	-1	0	0	0	0
47	31	-1	0	0	0	0
48	47	-1	0	0	0	0
49	50	-1	0	0	0	0
50	30	-1	0	0	0	0
51	52	-1	0	0	0	0
52	29	-1	0	0	0	0
1	16	-1	0	0	0	0
53	1	-1	0	0	0	0
53	15	-1	0	0	0	0
34	32	-1	0	0	0	0
54	53	-1	0	0	0	0
19	18	-1	0	0	0	0
17	54	-1	0	0	0	0
0	9	-1	0	0	0	0
45	46	-1	0	0	0	0
55	18	-1	0	0	0	0
57	33	-1	0	0	0	0
58	59	-1	0	0	0	0
62	57	-1	0	0	0	0
55	58	-1	0	0	0	0
60	59	-1	0	0	0	0
60	61	-1	0	0	0	0
61	62	-1	0	0	0	0
57	56	-1	0	0	0	0
63	38	-1	0	0	0	0
65	66	-1	0	0	0	0
63	68	-1	0	0	0	0
66	67	-1	0	0	0	0
26	67	-1	0	0	0	0
63	67	-1	0	0	0	0
65	64	-1	0	0	0	0
65	40	-1	0	0	0	0
39	66	-1	0	0	0	0
64	27	-1	0	0	0	0
27	69	-1	0	0	0	0
68	69	-1	0	0	0	0
43	70	-1	0	0	0	2
44	71	-1	0	0	0	2
7	6	-1	0	0	0	0
72	73	-1	0	0	0	0
73	49	-1	0	0	0	0
74	75	-1	0	0	0	0
75	51	-1	0	0	0	0
76	45	-1	0	0	0	0
77	76	-1	0	0	0	0
79	42	-1	0	0	0	0
80	41	-1	0	0	0	0
81	80	-1	0	0	0	0
81	78	-1	0	0	0	0
79	80	-1	0	0	0	0
3	4	-1	0	0	0	0
3	6	-1	0	0	0	0
0	7	-1	0	0	0	0
[NumArcSegments] = 0
[NumHoles] = 0
[NumBlockLabels] = 18
0.90000000000000002	2.2000000000000002	3	-1	0	0
10.600000000000001	4.4000000000000004	3	-1	0	0
1.2000000000000002	2.6000000000000001	1	-1	0	0
4.9000000000000004	3.6000000000000001	4	-1	0	0
4.9000000000000004	0.90000000000000002	4	-1	0	0
4.9000000000000004	6.3000000000000007	4	-1	0	0
1.1000000000000001	5.3000000000000007	1	-1	0	0
1.1000000000000001	6.9000000000000004	1	-1	0	0
10.300000000000001	6.8000000000000007	1	-1	0	0
7.9000000000000004	6.5	3	-1	0	0
2.8000000000000003	6.5	3	-1	0	0
9.7000000000000011	0.60000000000000009	2	-1	0	0
5.4000000000000004	2.1000000000000001	2	-1	0	0
5.1000000000000005	5.1000000000000005	2	-1	0	0
4.8000000000000007	7.7000000000000002	2	-1	0	0
10.5	0.60000000000000009	4	-1	0	0
2.6000000000000001	0.60000000000000009	2	-1	0	0
6.9000000000000004	0.60000000000000009	2	-1	0	0
